Circuito regulador
* NGSPICE simulation script
* BJT amp with feedback
*

* forces current values to be saved

.options savecurrents

.include ngspice_input.txt

.model Default D

.op

.end

.control

set numdgt = 12

*makes plots in color
set hcopypscolor=0
set color0=white
set color1=black
set color2=red
set color3=blue
set color4=violet
set color5=rgb:3/8/0
set color6=rgb:4/0/0


echo "********************************************"
echo  "Transient analysis"
echo "********************************************"
tran 1e-4 2e-1

meas tran ymax MAX v(out1) from=10m
meas tran ymin MIN v(out1) from=10m
meas tran outmean AVG v(out1)
meas tran xmax MAX @rreg[i] from=10m
meas tran xmin MIN @rreg[i] from=10m
meas tran tmin MIN_AT v(mid1) from=0 to=10m
meas tran tmax MAX_AT v(mid1) from=0 to=9m


hardcopy trans_regulator.ps v(mid1) v(out1)
echo trans_regulator_FIG

hardcopy trans_centered_output.ps v(out1)-12
echo trans_centered_output_FIG

.endc

